%mem=64gb
%nproc=8
#P TD(Nstates=10000) wB97XD/Gen  SCF(maxcycles=100)  Int(Grid=ultrafine)

xGDB7_00001_tier4.com

0 1
7 0.00000200 -0.00000000 0.11046300
1 0.15411100 0.92909200 -0.25775800
1 0.72756300 -0.59801100 -0.25775700
1 -0.88168700 -0.33107800 -0.25772800

H     0
S    3   1.00
     34.0613410              0.60251978D-02
      5.1235746              0.45021094D-01
      1.1646626              0.20189726
S    1   1.00
      0.32723041             1.0000000
S    1   1.00
      0.10307241             1.0000000
P    1   1.00
      0.8000000              1.0000000
P    1   1.00
      0.95774129632D-01      1.0000000
****
N     0
S    6   1.00
  19730.8006470              0.21887984991D-03
   2957.8958745              0.16960708803D-02
    673.22133595             0.87954603538D-02
    190.68249494             0.35359382605D-01
     62.295441898            0.11095789217
     22.654161182            0.24982972552
S    2   1.00
      8.9791477428           0.40623896148
      3.6863002370           0.24338217176
S    1   1.00
      0.84660076805          1.0000000
S    1   1.00
      0.33647133771          1.0000000
S    1   1.00
      0.13647653675          1.0000000
S    1   1.00
      0.68441605847D-01      1.0000000
P    4   1.00
     49.200380510            0.55552416751D-02
     11.346790537            0.38052379723D-01
      3.4273972411           0.14953671029
      1.1785525134           0.34949305230
P    1   1.00
      0.41642204972           .45843153697
P    1   1.00
      0.14260826011           .24428771672
D    1   1.00
      1.65400000             1.0000000
D    1   1.00
      0.46900000             1.0000000
D    1   1.00
      0.12829642058          1.0000000
F    1   1.00
      1.09300000             1.0000000
****


