%mem=64gb
%nproc=8
#P TD(Nstates=10000) wB97XD/Gen  SCF(maxcycles=100)  Int(Grid=ultrafine)

xGDB7_00001_tier4.com

0 1
6 -0.63014900 -0.00000100 0.00000300
9 0.74851200 0.00000200 -0.00000100
1 -0.98525000 0.89967600 0.50541600
1 -0.98522200 -0.88755700 0.52641700
1 -0.98524500 -0.01212800 -1.03184000

H     0
S    3   1.00
     34.0613410              0.60251978D-02
      5.1235746              0.45021094D-01
      1.1646626              0.20189726
S    1   1.00
      0.32723041             1.0000000
S    1   1.00
      0.10307241             1.0000000
P    1   1.00
      0.8000000              1.0000000
P    1   1.00
      0.95774129632D-01      1.0000000
****
C     0
S    6   1.00
  13575.3496820              0.22245814352D-03
   2035.2333680              0.17232738252D-02
    463.22562359             0.89255715314D-02
    131.20019598             0.35727984502D-01
     42.853015891            0.11076259931
     15.584185766            0.24295627626
S    2   1.00
      6.2067138508           0.41440263448
      2.5764896527           0.23744968655
S    1   1.00
      0.57696339419          1.0000000
S    1   1.00
      0.22972831358          1.0000000
S    1   1.00
      0.95164440028D-01      1.0000000
S    1   1.00
      0.48475401370D-01      1.0000000
P    4   1.00
     34.697232244            0.53333657805D-02
      7.9582622826           0.35864109092D-01
      2.3780826883           0.14215873329
      0.81433208183          0.34270471845
P    1   1.00
      0.28887547253           .46445822433
P    1   1.00
      0.10056823671           .24955789874
D    1   1.00
      1.09700000             1.0000000
D    1   1.00
      0.31800000             1.0000000
D    1   1.00
      0.90985336424D-01      1.0000000
F    1   1.00
      0.76100000             1.0000000
****
F     0
S    6   1.00
  35479.1004410              0.21545014888D-03
   5318.4728983              0.16700686527D-02
   1210.4810975              0.86733211476D-02
    342.85518140             0.35049933175D-01
    112.01943181             0.11165320133
     40.714740248            0.25988506647
S    2   1.00
     16.039678111            0.39422966880
      6.5038186740           0.24998238551
S    1   1.00
      1.5440477509           1.0000000
S    1   1.00
      0.61223452862          1.0000000
S    1   1.00
      0.24027979698          1.0000000
S    1   1.00
      0.90918446478D-01      1.0000000
P    4   1.00
     80.233900483            0.63685999134D-02
     18.594010743            0.44303143530D-01
      5.6867902653           0.16867248708
      1.9511006294           0.36166346255
P    1   1.00
      0.66970211298           .44202901491
P    1   1.00
      0.21651300410           .24319875730
P    1   1.00
      0.59613282472D-01      1.0000000
D    1   1.00
      3.10700000             1.0000000
D    1   1.00
      0.85500000             1.0000000
D    1   1.00
      0.18608388111          1.0000000
F    1   1.00
      1.91700000             1.0000000
****


