%mem=8gb
%nproc=8
#P TD(Nstates=10000) wB97XD/def2SVP  SCF(maxcycles=100)  Int(Grid=ultrafine)

xGDB7_00001_tier4.com

0 1
6 -0.00000000 1.27293400 -0.25813900
6 0.00000000 -0.00000000 0.58239900
6 -0.00000000 -1.27293400 -0.25813900
1 -0.00000000 2.17526700 0.37171900
1 -0.88799500 1.31951100 -0.90889100
1 0.88799500 1.31951100 -0.90889100
1 -0.87987900 0.00000000 1.24770000
1 0.87987900 -0.00000000 1.24770000
1 -0.88799500 -1.31951100 -0.90889100
1 -0.00000000 -2.17526700 0.37171900
1 0.88799500 -1.31951100 -0.90889100





