%mem=8gb
%nproc=8
#P TD(Nstates=10000) wB97XD/def2SVP  SCF(maxcycles=100)  Int(Grid=ultrafine)

xGDB7_00001_tier4.com

0 1
6 -1.24414100 -0.23575400 -0.02791500
6 0.05307000 0.55435300 0.05459700
7 1.20258000 -0.32019500 -0.11851300
1 -2.11984500 0.42504400 0.05498300
1 -1.30763000 -0.97611100 0.78644100
1 -1.30042800 -0.78068700 -0.98167700
1 0.06348000 1.13096000 1.00437700
1 0.07027400 1.30310100 -0.75485400
1 1.25454100 -0.98676000 0.65037200
1 2.06797200 0.21422200 -0.09014600





