%mem=8gb
%nproc=8
#P TD(Nstates=10000) wB97XD/def2SVP  SCF(maxcycles=100)  Int(Grid=ultrafine)

xGDB7_00001_tier4.com

0 1
6 -0.62049200 0.00000100 0.00000000
9 0.74542900 -0.00000000 -0.00000000
1 -0.99530300 -0.41599000 0.94880100
1 -0.99530500 -0.61369800 -0.83465500
1 -0.99530000 1.02968600 -0.11414600





