%mem=8gb
%nproc=8
#P TD(Nstates=10000) wB97XD/def2SVP  SCF(maxcycles=100)  Int(Grid=ultrafine)

xGDB7_00001_tier4.com

0 1
6 0.74131300 -0.39108500 0.02366600
6 -0.74131300 -0.39108500 0.02366600
7 0.00000000 0.84550400 -0.17358100
1 1.29025600 -0.75499800 -0.85067300
1 1.25217400 -0.56092400 0.97805400
1 -1.25217400 -0.56092300 0.97805400
1 -1.29025600 -0.75499800 -0.85067300
1 0.00000000 1.40633400 0.67631500





