%mem=8gb
%nproc=8
#P TD(Nstates=10000) wB97XD/def2SVP  SCF(maxcycles=100)  Int(Grid=ultrafine)

xGDB7_00001_tier4.com

0 1
9 -1.14491700 -0.25042800 0.00000000
6 0.00000000 0.42739300 0.00000000
6 1.18392700 -0.16733400 0.00000000
1 -0.15845400 1.51000900 0.00000000
1 1.26958200 -1.25555500 0.00000000
1 2.08956800 0.43904400 0.00000000





