%mem=8gb
%nproc=8
#P TD(Nstates=10000) wB97XD/def2SVP  SCF(maxcycles=100)  Int(Grid=ultrafine)

xGDB7_00001_tier4.com

0 1
8 -1.03226200 -0.37555600 -0.00000000
7 0.00000000 0.52001900 0.00000000
6 1.13534300 -0.04673900 0.00000000
1 -1.81669100 0.18172800 -0.00000000
1 2.01349000 0.60248400 0.00000000
1 1.24923500 -1.13946000 0.00000000





