%mem=8gb
%nproc=8
#P TD(Nstates=10000) wB97XD/def2SVP  SCF(maxcycles=100)  Int(Grid=ultrafine)

xGDB7_00001_tier4.com

0 1
6 -1.13862000 -0.50199000 0.00000000
6 0.00000000 0.47160300 0.00000000
6 1.29290600 0.14816100 0.00000000
1 -1.78081700 -0.35731200 0.88392400
1 -0.78305200 -1.54279800 0.00000000
1 -1.78081700 -0.35731200 -0.88392400
1 -0.27497600 1.53381600 0.00000000
1 1.62094900 -0.89654900 0.00000000
1 2.07299600 0.91350800 0.00000000





