%mem=8gb
%nproc=8
#P TD(Nstates=10000) wB97XD/def2SVP  SCF(maxcycles=100)  Int(Grid=ultrafine)

xGDB7_00001_tier4.com

0 1
6 0.75390900 -0.42959900 -0.00000000
6 -0.00491300 0.86768600 0.00000000
6 -0.74899400 -0.43811300 0.00000000
1 1.27078700 -0.72407000 0.91682200
1 1.27080100 -0.72404600 -0.91682200
1 -0.00830900 1.46255600 -0.91681100
1 -0.00828200 1.46255500 0.91681100
1 -1.26249600 -0.73842900 -0.91681700
1 -1.26251000 -0.73840800 0.91681600





