%mem=8gb
%nproc=8
#P TD(Nstates=10000) wB97XD/def2SVP  SCF(maxcycles=100)  Int(Grid=ultrafine)

xGDB7_00001_tier4.com

0 1
6 0.00000200 0.00000200 0.00000100
1 -0.51886200 -0.20432400 -0.94571500
1 0.99475700 0.41417900 -0.21039500
1 0.10493800 -0.93312500 0.56886300
1 -0.58084700 0.72325900 0.58724400





