%mem=8gb
%nproc=8
#P TD(Nstates=10000) wB97XD/def2SVP  SCF(maxcycles=100)  Int(Grid=ultrafine)

xGDB7_00001_tier4.com

0 1
8 -1.02446800 -0.43408200 -0.00000000
6 0.00000000 0.41838700 0.00000000
8 1.15358800 0.10404800 0.00000000
1 -0.65527400 -1.33095200 -0.00000000
1 -0.37768900 1.46090400 0.00000000





