%mem=8gb
%nproc=8
#P TD(Nstates=10000) wB97XD/def2SVP  SCF(maxcycles=100)  Int(Grid=ultrafine)

xGDB7_00001_tier4.com

0 1
6 -1.20907800 -0.23621700 -0.02141600
6 0.09140600 0.54949800 0.04628300
8 1.22995400 -0.25880900 -0.10803600
1 -2.08082500 0.43237900 0.04543200
1 -1.27938200 -0.95802300 0.80919200
1 -1.27018000 -0.79764600 -0.96542100
1 0.13032600 1.12954700 0.99021300
1 0.12605600 1.28480600 -0.77230400
1 1.24040100 -0.90027100 0.60798000





