%mem=8gb
%nproc=8
#P TD(Nstates=10000) wB97XD/def2SVP  SCF(maxcycles=100)  Int(Grid=ultrafine)

xGDB7_00001_tier4.com

0 1
6 0.00000000 1.16324500 -0.18809600
8 -0.00000000 -0.00000000 0.57721000
6 -0.00000000 -1.16324500 -0.18809600
1 -0.00000000 2.02202300 0.49692400
1 -0.89534300 1.23346400 -0.83859400
1 0.89534300 1.23346400 -0.83859400
1 -0.00000000 -2.02202300 0.49692400
1 0.89534300 -1.23346400 -0.83859400
1 -0.89534300 -1.23346400 -0.83859400





