%mem=8gb
%nproc=8
#P TD(Nstates=10000) wB97XD/def2SVP  SCF(maxcycles=100)  Int(Grid=ultrafine)

xGDB7_00001_tier4.com

0 1
6 0.00000000 0.00000000 -1.17807700
6 0.00000000 0.00000000 0.28070100
7 0.00000000 0.00000000 1.43577500
1 0.00000000 1.03163200 -1.55539100
1 -0.89342000 -0.51581600 -1.55539100
1 0.89342000 -0.51581600 -1.55539100





