%mem=8gb
%nproc=8
#P TD(Nstates=10000) wB97XD/def2SVP  SCF(maxcycles=100)  Int(Grid=ultrafine)

xGDB7_00001_tier4.com

0 1
6 -1.11597600 -0.46737700 0.00000000
6 0.00000000 0.55106000 0.00000000
9 1.22327400 -0.07980100 0.00000000
1 -2.09326700 0.03785400 0.00000000
1 -1.05692400 -1.10819900 0.89158000
1 -1.05692400 -1.10819900 -0.89158000
1 -0.05324800 1.19733000 0.89253800
1 -0.05324800 1.19733000 -0.89253800





