%mem=8gb
%nproc=8
#P TD(Nstates=10000) wB97XD/def2TZVP  SCF(maxcycles=100)  Int(Grid=ultrafine)

xGDB7_00001_tier4.com

0 1
6 -0.02665500 -0.22092300 1.20691500
7 -0.02665500 0.57967500 0.00000000
6 -0.02665500 -0.22092300 -1.20691500
1 0.02892900 0.42719600 2.08233000
1 0.80083600 -0.94738300 1.25857100
1 -0.96171800 -0.78309400 1.26936700
1 0.77035900 1.19990500 0.00000000
1 -0.96171800 -0.78309400 -1.26936700
1 0.80083600 -0.94738300 -1.25857100
1 0.02892900 0.42719600 -2.08233000





