%mem=8gb
%nproc=8
#P TD(Nstates=10000) wB97XD/def2TZVP  SCF(maxcycles=100)  Int(Grid=ultrafine)

xGDB7_00001_tier4.com

0 1
9 -1.13972400 -0.26972500 0.00000000
6 0.00000000 0.43028100 -0.00000000
6 1.18085200 -0.14876000 0.00000000
1 -0.18045000 1.49833100 -0.00000000
1 1.28363400 -1.22517000 0.00000000
1 2.06922200 0.46523800 -0.00000000





