%mem=8gb
%nproc=8
#P TD(Nstates=10000) wB97XD/def2TZVP  SCF(maxcycles=100)  Int(Grid=ultrafine)

xGDB7_00001_tier4.com

0 1
6 1.23667300 0.00000300 0.00000300
6 -0.21874200 -0.00000600 -0.00000500
6 -1.41578000 0.00000400 -0.00000100
1 1.62204500 0.97903900 0.28809400
1 1.62207000 -0.24002300 -0.99189800
1 1.62203700 -0.73901900 0.70381500
1 -2.47905800 -0.00000500 0.00000800





