%mem=8gb
%nproc=8
#P TD(Nstates=10000) wB97XD/def2TZVP  SCF(maxcycles=100)  Int(Grid=ultrafine)

xGDB7_00001_tier4.com

0 1
6 -0.63014900 -0.00000100 0.00000300
9 0.74851200 0.00000200 -0.00000100
1 -0.98525000 0.89967600 0.50541600
1 -0.98522200 -0.88755700 0.52641700
1 -0.98524500 -0.01212800 -1.03184000





