%mem=8gb
%nproc=8
#P TD(Nstates=10000) wB97XD/def2TZVP  SCF(maxcycles=100)  Int(Grid=ultrafine)

xGDB7_00001_tier4.com

0 1
8 -1.02380400 -0.43879200 -0.00000000
6 0.00000000 0.41895200 0.00000000
8 1.15298500 0.10998300 0.00000000
1 -0.65694200 -1.33301200 -0.00000000
1 -0.37649900 1.44977000 -0.00000000





