%mem=8gb
%nproc=8
#P TD(Nstates=10000) wB97XD/def2TZVP  SCF(maxcycles=100)  Int(Grid=ultrafine)

xGDB7_00001_tier4.com

0 1
6 -0.00000000 0.72954900 -0.36736400
6 -0.00000000 -0.72954900 -0.36736400
8 0.00000000 0.00000000 0.84503300
1 -0.91894500 1.26424300 -0.58797500
1 0.91894500 1.26424300 -0.58797500
1 0.91894500 -1.26424300 -0.58797500
1 -0.91894500 -1.26424300 -0.58797500





