%mem=8gb
%nproc=8
#P TD(Nstates=10000) wB97XD/def2TZVP  SCF(maxcycles=100)  Int(Grid=ultrafine)

xGDB7_00001_tier4.com

0 1
6 -1.20842200 -0.23906900 -0.02191700
6 0.08389300 0.55345200 0.04673400
8 1.23346700 -0.25600200 -0.10586400
1 -2.07199900 0.42513600 0.05170000
1 -1.27067000 -0.95775600 0.79973100
1 -1.27062500 -0.78828000 -0.96232700
1 0.13003000 1.11919700 0.98611200
1 0.12595200 1.27702600 -0.76854700
1 1.23675100 -0.91360500 0.59134100





