%mem=8gb
%nproc=8
#P TD(Nstates=10000) wB97XD/def2TZVP  SCF(maxcycles=100)  Int(Grid=ultrafine)

xGDB7_00001_tier4.com

0 1
6 -1.13157300 -0.50438600 0.00000000
6 0.00000000 0.47222300 0.00000000
6 1.28413600 0.15079200 0.00000000
1 -1.76744600 -0.36277500 0.87769900
1 -0.77012300 -1.53345800 0.00000000
1 -1.76744600 -0.36277500 -0.87769900
1 -0.27655100 1.52346500 0.00000000
1 1.60843500 -0.88455600 0.00000000
1 2.05774900 0.90832600 0.00000000





