%mem=8gb
%nproc=8
#P TD(Nstates=10000) wB97XD/def2TZVP  SCF(maxcycles=100)  Int(Grid=ultrafine)

xGDB7_00001_tier4.com

0 1
6 0.92625200 -0.71905500 0.00000000
6 0.00000000 0.45927600 0.00000000
8 -1.19699800 0.38713500 0.00000000
1 1.57596600 -0.66867700 0.87769800
1 1.57596600 -0.66867700 -0.87769800
1 0.36673400 -1.65223600 0.00000000
1 0.49981200 1.45118200 0.00000000





