%mem=8gb
%nproc=8
#P TD(Nstates=10000) wB97XD/def2TZVP  SCF(maxcycles=100)  Int(Grid=ultrafine)

xGDB7_00001_tier4.com

0 1
7 1.11103500 -0.17704600 -0.05246700
6 -0.12200900 0.41959300 0.00177400
7 -1.26760700 -0.12144300 0.00809800
1 1.92055800 0.36780200 0.18010400
1 1.18070000 -1.16561700 0.11530800
1 -0.06570100 1.50881300 0.00404600
1 -1.20749700 -1.13912600 0.00048100





