%mem=8gb
%nproc=8
#P TD(Nstates=10000) wB97XD/def2TZVP  SCF(maxcycles=100)  Int(Grid=ultrafine)

xGDB7_00001_tier4.com

0 1
6 -0.00000000 1.26773100 -0.25908200
6 0.00000000 0.00000000 0.58555200
6 -0.00000000 -1.26773100 -0.25908200
1 0.00000000 2.16430800 0.36308700
1 -0.88145300 1.30767500 -0.90365200
1 0.88145300 1.30767500 -0.90365200
1 -0.87453200 0.00000000 1.24205500
1 0.87453200 -0.00000000 1.24205500
1 -0.88145300 -1.30767500 -0.90365200
1 -0.00000000 -2.16430800 0.36308700
1 0.88145300 -1.30767500 -0.90365200





