%mem=8gb
%nproc=8
#P TD(Nstates=10000) wB97XD/def2TZVP  SCF(maxcycles=100)  Int(Grid=ultrafine)

xGDB7_00001_tier4.com

0 1
6 0.51684500 0.69483000 -0.00000000
6 -0.86016600 0.10019500 0.00000000
6 0.34330800 -0.79502100 -0.00000000
1 0.86651400 1.16485800 0.90917600
1 0.86651300 1.16485900 -0.90917600
1 -1.44204700 0.16796400 -0.90917700
1 -1.44204800 0.16796500 0.90917600
1 0.57557400 -1.33283700 -0.90917900
1 0.57557400 -1.33283700 0.90917900





