%mem=8gb
%nproc=8
#P TD(Nstates=10000) wB97XD/def2TZVP  SCF(maxcycles=100)  Int(Grid=ultrafine)

xGDB7_00001_tier4.com

0 1
6 -0.04907800 0.70204200 0.00000000
7 -0.04907800 -0.75424300 -0.00000000
1 0.94610900 1.16660300 0.00000000
1 -0.58757400 1.06259700 0.87777000
1 -0.58757400 1.06259700 -0.87777000
1 0.43352500 -1.11217500 0.81250400
1 0.43352500 -1.11217500 -0.81250400





