%mem=8gb
%nproc=8
#P TD(Nstates=10000) wB97XD/def2TZVP  SCF(maxcycles=100)  Int(Grid=ultrafine)

xGDB7_00001_tier4.com

0 1
6 0.00000100 0.00000600 -0.00000000
1 0.98523300 0.46299000 -0.02803500
1 -0.05618000 -0.68294300 0.84630500
1 -0.16812500 -0.55191100 -0.92353600
1 -0.76093700 0.77182500 0.10526900





