%mem=8gb
%nproc=8
#P TD(Nstates=10000) wB97XD/def2TZVP  SCF(maxcycles=100)  Int(Grid=ultrafine)

xGDB7_00001_tier4.com

0 1
6 -1.12284400 -0.45232000 0.00000000
6 0.00000000 0.55399700 0.00000000
9 1.22528400 -0.09823600 0.00000000
1 -2.08331400 0.06680500 0.00000000
1 -1.07279600 -1.08565100 0.88614800
1 -1.07279600 -1.08565100 -0.88614800
1 -0.03079400 1.18927800 0.88871600
1 -0.03079400 1.18927800 -0.88871600





